10
NH2CH2COOH
 C    0.287500   -2.993700   -0.697400
 C    1.319900   -3.898500   -0.000200
 O    2.744200   -3.425200    0.166200
 O    0.871900   -5.182000    0.656700
 H   -0.189100   -5.085500    0.968200
 H   -0.752300   -3.217800   -0.287500
 H    0.305900   -3.191100   -1.820100
 N    0.633000   -1.548100   -0.433100
 H   -0.107600   -0.892700   -0.937100
 H    1.647600   -1.333500   -0.829000
